%module CSP
%{
#include <SimData/Types.h>
%}
/*
%include exception.i

%import "SimData/cSimData.i"

%include "CSPSim.i"
%include "SimpleConfig.i"
%include "Config.i"
%include "SimObject.i"
%include "SimTankObject.i"
%include "AeroDynamics.i"
%include "TerrainObject.i"

*/
