TOPDIR = ..

BIN = $(TOPDIR)/Bin

#SUBDIRS = FX

DEMETER_PREFIX = $(TOPDIR)/$(DEMETER_RELATIVE)
DEMETER_INCLUDE = -I$(DEMETER_PREFIX)
DEMETER_LIBRARY = -L$(DEMETER_PREFIX) -ldemeter_csp 

LIBS = $(DEMETER_LIBRARY)

INCLUDE = -I$(TOPDIR)/Include $(DEMETER_INCLUDE) -I@PYTHON_PREFIX@/include/python2.2

CFLAGS = $(GDEBUGF) $(GCFLAGS) $(INCLUDE) @SDL_FLAGS@
SWCXXF = $(GCFLAGS) $(INCLUDE)
LDOPTS = -Wl,-z,lazyload $(GLDOPTS) @LIBS@
SWOPTS = $(GSWOPTS) $(INCLUDE)

SOURCES = \
	AeroDynamics.cpp \
	AircraftObject.cpp \
	Atmosphere.cpp \
	base.cpp \
	BaseScreen.cpp \
	Colorspace.cpp \
	Config.cpp \
	Console.cpp \
	ConsoleCommands.cpp \
	CSPSim.cpp \
	DynamicObject.cpp \
	DynamicalSystem.cpp \
	EventMapIndex.cpp \
	EventMapping.cpp \
	F16Model.cpp \
	GameScreen.cpp \
	HID.cpp \
	InputInterface.cpp \
	LandingGear.cpp \
	LogoScreen.cpp \
	LogStream.cpp \
	MenuScreen.cpp \
 	Message.cpp \
	mmgr.cpp \
	ObjectModel.cpp \
	ObjectRangeInfo.cpp \
	Platform.cpp \
	ScreenInfo.cpp \
	ScreenInfoManager.cpp \
	SimObject.cpp \
	SimpleConfig.cpp \
	Sky.cpp \
	SmokeEffects.cpp \
	StaticObject.cpp \
	TankObject.cpp \
	TerrainObject.cpp \
	Tools.cpp \
	trees.cpp \
	VirtualBattlefield.cpp
	#VirtualBattlefieldScene.cpp 

OBJECTS = $(SOURCES:%.cpp=%.o) 

DEPDIR = .deps
MKDEP = $(CXX) -M $(CFLAGS)
SWDEP = $(SWIG) -M $(SWOPTS)
DEPFILES = $(addprefix $(DEPDIR)/,$(addsuffix .d, $(SOURCES))) $(DEPDIR)/cCSP.i.swigdep
DEPFILTER =
DEPS_MAGIC := $(shell mkdir $(DEPDIR) > /dev/null 2>&1 || :)

.PHONY: clean-deps clean all default

default:
	@echo "run make from top-level directory only"
	
clean-objects:
	rm -f $(SOURCES:%.cpp=%.o)
	rm -f lib*.a
	rm -f $(BIN)/_cCSP.so $(BIN)/cCSP.py cCSP_wrap.*
	rm -f $(DEPDIR)/*.d

clean-dependencies:
	@echo $(RM) -r $(RMFLAGS) $(DEPDIR)

clean-deps: clean-dependencies

clean: clean-deps clean-objects

ifeq ($(findstring clean,$(MAKECMDGOALS)),)
ifneq ($(strip $(DEPFILES)),)
-include $(DEPFILES)
endif
endif

#clean clean-deps:
#	for dir in $(SUBDIRS); do \
#		$(MAKE) -C $${dir} $@; \
#	done
	
build-subdirs:
#	@for dir in $(SUBDIRS); do \
#		$(MAKE) -C $${dir} all; \
#	done

$(DEPDIR)/%.d : %
	@echo "Computing dependencies for $<..."
	@$(MKDEP) $< $(DEPFILTER) > $@
	
$(DEPDIR)/%.swigdep : %
	@echo "Computing dependencies for $<..."
	@$(SWDEP) $(DEPFILTER) -o $(<:.i=_wrap.cpp) $< > $@

_cCSP.so: $(OBJECTS) cCSP_wrap.o
	$(CXX) $(LDOPTS) -o$(BIN)/$@ $^ $(LIBS)
	
CSPapp: $(OBJECTS) main.o
	$(CXX) -lswigpy -lpython2.2 -o$@ $^ $(LIBS)

cCSP_wrap.cpp: cCSP.i
	$(SWIG) $(SWOPTS) -o $@ $< 
	mv cCSP.py $(BIN)

cCSP_wrap.o: cCSP_wrap.cpp
	$(CXX) -c $(SWCXXF) $(@:.o=.cpp)

%.o: %.cpp 
	$(CXX) -c $(CFLAGS) $(@:.o=.cpp)

AeroDynamics.o: AeroDynamics.cpp 
	$(CXX) -c $(CFLAGS) -O3 $(@:.o=.cpp)
	
Makefile: Makefile.in
	cd $(TOPDIR) && ./configure

all: Makefile build-subdirs _cCSP.so #CSPapp

